
---------- Begin Simulation Statistics ----------
sim_seconds                                  1.110799                       # Number of seconds simulated
sim_ticks                                1110798619500                       # Number of ticks simulated
final_tick                               1110798619500                       # Number of ticks from beginning of simulation (restored from checkpoints and never reset)
sim_freq                                 1000000000000                       # Frequency of simulated ticks
host_inst_rate                                 631363                       # Simulator instruction rate (inst/s)
host_op_rate                                  1024619                       # Simulator op (including micro ops) rate (op/s)
host_tick_rate                             1394023482                       # Simulator tick rate (ticks/s)
host_mem_usage                                 665028                       # Number of bytes of host memory used
host_seconds                                   796.83                       # Real time elapsed on the host
sim_insts                                   503088760                       # Number of instructions simulated
sim_ops                                     816446101                       # Number of ops (including micro ops) simulated
system.voltage_domain.voltage                       1                       # Voltage in Volts
system.clk_domain.clock                          1000                       # Clock period in ticks
system.mem_ctrls.pwrStateResidencyTicks::UNDEFINED 1110798619500                       # Cumulative time (in ticks) in various power states
system.mem_ctrls.bytes_read::cpu.inst           22720                       # Number of bytes read from this memory
system.mem_ctrls.bytes_read::cpu.data        17904064                       # Number of bytes read from this memory
system.mem_ctrls.bytes_read::total           17926784                       # Number of bytes read from this memory
system.mem_ctrls.bytes_inst_read::cpu.inst        22720                       # Number of instructions bytes read from this memory
system.mem_ctrls.bytes_inst_read::total         22720                       # Number of instructions bytes read from this memory
system.mem_ctrls.bytes_written::writebacks     16446400                       # Number of bytes written to this memory
system.mem_ctrls.bytes_written::total        16446400                       # Number of bytes written to this memory
system.mem_ctrls.num_reads::cpu.inst              355                       # Number of read requests responded to by this memory
system.mem_ctrls.num_reads::cpu.data           279751                       # Number of read requests responded to by this memory
system.mem_ctrls.num_reads::total              280106                       # Number of read requests responded to by this memory
system.mem_ctrls.num_writes::writebacks        256975                       # Number of write requests responded to by this memory
system.mem_ctrls.num_writes::total             256975                       # Number of write requests responded to by this memory
system.mem_ctrls.bw_read::cpu.inst              20454                       # Total read bandwidth from this memory (bytes/s)
system.mem_ctrls.bw_read::cpu.data           16118191                       # Total read bandwidth from this memory (bytes/s)
system.mem_ctrls.bw_read::total              16138644                       # Total read bandwidth from this memory (bytes/s)
system.mem_ctrls.bw_inst_read::cpu.inst         20454                       # Instruction read bandwidth from this memory (bytes/s)
system.mem_ctrls.bw_inst_read::total            20454                       # Instruction read bandwidth from this memory (bytes/s)
system.mem_ctrls.bw_write::writebacks        14805924                       # Write bandwidth from this memory (bytes/s)
system.mem_ctrls.bw_write::total             14805924                       # Write bandwidth from this memory (bytes/s)
system.mem_ctrls.bw_total::writebacks        14805924                       # Total bandwidth to/from this memory (bytes/s)
system.mem_ctrls.bw_total::cpu.inst             20454                       # Total bandwidth to/from this memory (bytes/s)
system.mem_ctrls.bw_total::cpu.data          16118191                       # Total bandwidth to/from this memory (bytes/s)
system.mem_ctrls.bw_total::total             30944569                       # Total bandwidth to/from this memory (bytes/s)
system.pwrStateResidencyTicks::UNDEFINED 1110798619500                       # Cumulative time (in ticks) in various power states
system.cpu_voltage_domain.voltage                   1                       # Voltage in Volts
system.cpu_clk_domain.clock                       500                       # Clock period in ticks
system.cpu.dtb.walker.pwrStateResidencyTicks::UNDEFINED 1110798619500                       # Cumulative time (in ticks) in various power states
system.cpu.dtb.rdAccesses                   238245989                       # TLB accesses on read requests
system.cpu.dtb.wrAccesses                    64374659                       # TLB accesses on write requests
system.cpu.dtb.rdMisses                          5921                       # TLB misses on read requests
system.cpu.dtb.wrMisses                           999                       # TLB misses on write requests
system.cpu.apic_clk_domain.clock                 8000                       # Clock period in ticks
system.cpu.interrupts.pwrStateResidencyTicks::UNDEFINED 1110798619500                       # Cumulative time (in ticks) in various power states
system.cpu.itb.walker.pwrStateResidencyTicks::UNDEFINED 1110798619500                       # Cumulative time (in ticks) in various power states
system.cpu.itb.rdAccesses                           0                       # TLB accesses on read requests
system.cpu.itb.wrAccesses                   673335193                       # TLB accesses on write requests
system.cpu.itb.rdMisses                             0                       # TLB misses on read requests
system.cpu.itb.wrMisses                            37                       # TLB misses on write requests
system.cpu.workload.numSyscalls                     9                       # Number of system calls
system.cpu.pwrStateResidencyTicks::ON    1110798619500                       # Cumulative time (in ticks) in various power states
system.cpu.numCycles                       2221597239                       # number of cpu cycles simulated
system.cpu.numWorkItemsStarted                      0                       # number of work items this cpu started
system.cpu.numWorkItemsCompleted                    0                       # number of work items this cpu completed
system.cpu.committedInsts                   503088760                       # Number of instructions committed
system.cpu.committedOps                     816446101                       # Number of ops (including micro ops) committed
system.cpu.num_int_alu_accesses             811629982                       # Number of integer alu accesses
system.cpu.num_fp_alu_accesses                   1967                       # Number of float alu accesses
system.cpu.num_vec_alu_accesses                     0                       # Number of vector alu accesses
system.cpu.num_func_calls                     9452832                       # number of times a function call or return occured
system.cpu.num_conditional_control_insts     46565887                       # number of instructions that are conditional controls
system.cpu.num_int_insts                    811629982                       # number of integer instructions
system.cpu.num_fp_insts                          1967                       # number of float instructions
system.cpu.num_vec_insts                            0                       # number of vector instructions
system.cpu.num_int_register_reads          1822855591                       # number of times the integer registers were read
system.cpu.num_int_register_writes          704741291                       # number of times the integer registers were written
system.cpu.num_fp_register_reads                 3779                       # number of times the floating registers were read
system.cpu.num_fp_register_writes                1492                       # number of times the floating registers were written
system.cpu.num_vec_register_reads                   0                       # number of times the vector registers were read
system.cpu.num_vec_register_writes                  0                       # number of times the vector registers were written
system.cpu.num_cc_register_reads            297557760                       # number of times the CC registers were read
system.cpu.num_cc_register_writes           279904578                       # number of times the CC registers were written
system.cpu.num_mem_refs                     302620643                       # number of memory refs
system.cpu.num_load_insts                   238245985                       # Number of load instructions
system.cpu.num_store_insts                   64374658                       # Number of store instructions
system.cpu.num_idle_cycles                          0                       # Number of idle cycles
system.cpu.num_busy_cycles                 2221597239                       # Number of busy cycles
system.cpu.not_idle_fraction                        1                       # Percentage of non-idle cycles
system.cpu.idle_fraction                            0                       # Percentage of idle cycles
system.cpu.Branches                          60772143                       # Number of branches fetched
system.cpu.op_class::No_OpClass               1362109      0.17%      0.17% # Class of executed instruction
system.cpu.op_class::IntAlu                 504014339     61.73%     61.90% # Class of executed instruction
system.cpu.op_class::IntMult                        4      0.00%     61.90% # Class of executed instruction
system.cpu.op_class::IntDiv                   8448046      1.03%     62.93% # Class of executed instruction
system.cpu.op_class::FloatAdd                      10      0.00%     62.93% # Class of executed instruction
system.cpu.op_class::FloatCmp                       0      0.00%     62.93% # Class of executed instruction
system.cpu.op_class::FloatCvt                       0      0.00%     62.93% # Class of executed instruction
system.cpu.op_class::FloatMult                      0      0.00%     62.93% # Class of executed instruction
system.cpu.op_class::FloatMultAcc                   0      0.00%     62.93% # Class of executed instruction
system.cpu.op_class::FloatDiv                       0      0.00%     62.93% # Class of executed instruction
system.cpu.op_class::FloatMisc                      0      0.00%     62.93% # Class of executed instruction
system.cpu.op_class::FloatSqrt                      0      0.00%     62.93% # Class of executed instruction
system.cpu.op_class::SimdAdd                      374      0.00%     62.93% # Class of executed instruction
system.cpu.op_class::SimdAddAcc                     0      0.00%     62.93% # Class of executed instruction
system.cpu.op_class::SimdAlu                       68      0.00%     62.93% # Class of executed instruction
system.cpu.op_class::SimdCmp                        0      0.00%     62.93% # Class of executed instruction
system.cpu.op_class::SimdCvt                      108      0.00%     62.93% # Class of executed instruction
system.cpu.op_class::SimdMisc                     214      0.00%     62.93% # Class of executed instruction
system.cpu.op_class::SimdMult                       0      0.00%     62.93% # Class of executed instruction
system.cpu.op_class::SimdMultAcc                    0      0.00%     62.93% # Class of executed instruction
system.cpu.op_class::SimdShift                    186      0.00%     62.93% # Class of executed instruction
system.cpu.op_class::SimdShiftAcc                   0      0.00%     62.93% # Class of executed instruction
system.cpu.op_class::SimdSqrt                       0      0.00%     62.93% # Class of executed instruction
system.cpu.op_class::SimdFloatAdd                   0      0.00%     62.93% # Class of executed instruction
system.cpu.op_class::SimdFloatAlu                   0      0.00%     62.93% # Class of executed instruction
system.cpu.op_class::SimdFloatCmp                   0      0.00%     62.93% # Class of executed instruction
system.cpu.op_class::SimdFloatCvt                   0      0.00%     62.93% # Class of executed instruction
system.cpu.op_class::SimdFloatDiv                   0      0.00%     62.93% # Class of executed instruction
system.cpu.op_class::SimdFloatMisc                  0      0.00%     62.93% # Class of executed instruction
system.cpu.op_class::SimdFloatMult                  0      0.00%     62.93% # Class of executed instruction
system.cpu.op_class::SimdFloatMultAcc               0      0.00%     62.93% # Class of executed instruction
system.cpu.op_class::SimdFloatSqrt                  0      0.00%     62.93% # Class of executed instruction
system.cpu.op_class::MemRead                238245917     29.18%     92.12% # Class of executed instruction
system.cpu.op_class::MemWrite                64374231      7.88%    100.00% # Class of executed instruction
system.cpu.op_class::FloatMemRead                  68      0.00%    100.00% # Class of executed instruction
system.cpu.op_class::FloatMemWrite                427      0.00%    100.00% # Class of executed instruction
system.cpu.op_class::IprAccess                      0      0.00%    100.00% # Class of executed instruction
system.cpu.op_class::InstPrefetch                   0      0.00%    100.00% # Class of executed instruction
system.cpu.op_class::total                  816446101                       # Class of executed instruction
system.cpu.dcache.tags.pwrStateResidencyTicks::UNDEFINED 1110798619500                       # Cumulative time (in ticks) in various power states
system.cpu.dcache.tags.tagsinuse           511.827846                       # Cycle average of tags in use
system.cpu.dcache.tags.total_refs           302620648                       # Total number of references to valid blocks.
system.cpu.dcache.tags.sampled_refs            682610                       # Sample count of references to valid blocks.
system.cpu.dcache.tags.avg_refs            443.328765                       # Average number of references to valid blocks.
system.cpu.dcache.tags.warmup_cycle            768500                       # Cycle when the warmup percentage was hit.
system.cpu.dcache.tags.occ_blocks::cpu.data   511.827846                       # Average occupied blocks per requestor
system.cpu.dcache.tags.occ_percent::cpu.data     0.999664                       # Average percentage of cache occupancy
system.cpu.dcache.tags.occ_percent::total     0.999664                       # Average percentage of cache occupancy
system.cpu.dcache.tags.occ_task_id_blocks::1024          512                       # Occupied blocks per task id
system.cpu.dcache.tags.age_task_id_blocks_1024::0           11                       # Occupied blocks per task id
system.cpu.dcache.tags.age_task_id_blocks_1024::1           18                       # Occupied blocks per task id
system.cpu.dcache.tags.age_task_id_blocks_1024::2           54                       # Occupied blocks per task id
system.cpu.dcache.tags.age_task_id_blocks_1024::3          422                       # Occupied blocks per task id
system.cpu.dcache.tags.age_task_id_blocks_1024::4            7                       # Occupied blocks per task id
system.cpu.dcache.tags.occ_task_id_percent::1024            1                       # Percentage of cache occupancy per task id
system.cpu.dcache.tags.tag_accesses         605923906                       # Number of tag accesses
system.cpu.dcache.tags.data_accesses        605923906                       # Number of data accesses
system.cpu.dcache.pwrStateResidencyTicks::UNDEFINED 1110798619500                       # Cumulative time (in ticks) in various power states
system.cpu.dcache.ReadReq_hits::cpu.data    237629890                       # number of ReadReq hits
system.cpu.dcache.ReadReq_hits::total       237629890                       # number of ReadReq hits
system.cpu.dcache.WriteReq_hits::cpu.data     64088082                       # number of WriteReq hits
system.cpu.dcache.WriteReq_hits::total       64088082                       # number of WriteReq hits
system.cpu.dcache.demand_hits::cpu.data     301717972                       # number of demand (read+write) hits
system.cpu.dcache.demand_hits::total        301717972                       # number of demand (read+write) hits
system.cpu.dcache.overall_hits::cpu.data    301717972                       # number of overall hits
system.cpu.dcache.overall_hits::total       301717972                       # number of overall hits
system.cpu.dcache.ReadReq_misses::cpu.data       616099                       # number of ReadReq misses
system.cpu.dcache.ReadReq_misses::total        616099                       # number of ReadReq misses
system.cpu.dcache.WriteReq_misses::cpu.data       286577                       # number of WriteReq misses
system.cpu.dcache.WriteReq_misses::total       286577                       # number of WriteReq misses
system.cpu.dcache.demand_misses::cpu.data       902676                       # number of demand (read+write) misses
system.cpu.dcache.demand_misses::total         902676                       # number of demand (read+write) misses
system.cpu.dcache.overall_misses::cpu.data       902676                       # number of overall misses
system.cpu.dcache.overall_misses::total        902676                       # number of overall misses
system.cpu.dcache.ReadReq_miss_latency::cpu.data 111904984000                       # number of ReadReq miss cycles
system.cpu.dcache.ReadReq_miss_latency::total 111904984000                       # number of ReadReq miss cycles
system.cpu.dcache.WriteReq_miss_latency::cpu.data  23775408500                       # number of WriteReq miss cycles
system.cpu.dcache.WriteReq_miss_latency::total  23775408500                       # number of WriteReq miss cycles
system.cpu.dcache.demand_miss_latency::cpu.data 135680392500                       # number of demand (read+write) miss cycles
system.cpu.dcache.demand_miss_latency::total 135680392500                       # number of demand (read+write) miss cycles
system.cpu.dcache.overall_miss_latency::cpu.data 135680392500                       # number of overall miss cycles
system.cpu.dcache.overall_miss_latency::total 135680392500                       # number of overall miss cycles
system.cpu.dcache.ReadReq_accesses::cpu.data    238245989                       # number of ReadReq accesses(hits+misses)
system.cpu.dcache.ReadReq_accesses::total    238245989                       # number of ReadReq accesses(hits+misses)
system.cpu.dcache.WriteReq_accesses::cpu.data     64374659                       # number of WriteReq accesses(hits+misses)
system.cpu.dcache.WriteReq_accesses::total     64374659                       # number of WriteReq accesses(hits+misses)
system.cpu.dcache.demand_accesses::cpu.data    302620648                       # number of demand (read+write) accesses
system.cpu.dcache.demand_accesses::total    302620648                       # number of demand (read+write) accesses
system.cpu.dcache.overall_accesses::cpu.data    302620648                       # number of overall (read+write) accesses
system.cpu.dcache.overall_accesses::total    302620648                       # number of overall (read+write) accesses
system.cpu.dcache.ReadReq_miss_rate::cpu.data     0.002586                       # miss rate for ReadReq accesses
system.cpu.dcache.ReadReq_miss_rate::total     0.002586                       # miss rate for ReadReq accesses
system.cpu.dcache.WriteReq_miss_rate::cpu.data     0.004452                       # miss rate for WriteReq accesses
system.cpu.dcache.WriteReq_miss_rate::total     0.004452                       # miss rate for WriteReq accesses
system.cpu.dcache.demand_miss_rate::cpu.data     0.002983                       # miss rate for demand accesses
system.cpu.dcache.demand_miss_rate::total     0.002983                       # miss rate for demand accesses
system.cpu.dcache.overall_miss_rate::cpu.data     0.002983                       # miss rate for overall accesses
system.cpu.dcache.overall_miss_rate::total     0.002983                       # miss rate for overall accesses
system.cpu.dcache.ReadReq_avg_miss_latency::cpu.data 181634.743767                       # average ReadReq miss latency
system.cpu.dcache.ReadReq_avg_miss_latency::total 181634.743767                       # average ReadReq miss latency
system.cpu.dcache.WriteReq_avg_miss_latency::cpu.data 82963.421698                       # average WriteReq miss latency
system.cpu.dcache.WriteReq_avg_miss_latency::total 82963.421698                       # average WriteReq miss latency
system.cpu.dcache.demand_avg_miss_latency::cpu.data 150309.072691                       # average overall miss latency
system.cpu.dcache.demand_avg_miss_latency::total 150309.072691                       # average overall miss latency
system.cpu.dcache.overall_avg_miss_latency::cpu.data 150309.072691                       # average overall miss latency
system.cpu.dcache.overall_avg_miss_latency::total 150309.072691                       # average overall miss latency
system.cpu.dcache.blocked_cycles::no_mshrs            0                       # number of cycles access was blocked
system.cpu.dcache.blocked_cycles::no_targets            0                       # number of cycles access was blocked
system.cpu.dcache.blocked::no_mshrs                 0                       # number of cycles access was blocked
system.cpu.dcache.blocked::no_targets               0                       # number of cycles access was blocked
system.cpu.dcache.avg_blocked_cycles::no_mshrs          nan                       # average number of cycles each access was blocked
system.cpu.dcache.avg_blocked_cycles::no_targets          nan                       # average number of cycles each access was blocked
system.cpu.dcache.writebacks::writebacks       657660                       # number of writebacks
system.cpu.dcache.writebacks::total            657660                       # number of writebacks
system.cpu.dcache.ReadReq_mshr_misses::cpu.data       616099                       # number of ReadReq MSHR misses
system.cpu.dcache.ReadReq_mshr_misses::total       616099                       # number of ReadReq MSHR misses
system.cpu.dcache.WriteReq_mshr_misses::cpu.data       286577                       # number of WriteReq MSHR misses
system.cpu.dcache.WriteReq_mshr_misses::total       286577                       # number of WriteReq MSHR misses
system.cpu.dcache.demand_mshr_misses::cpu.data       902676                       # number of demand (read+write) MSHR misses
system.cpu.dcache.demand_mshr_misses::total       902676                       # number of demand (read+write) MSHR misses
system.cpu.dcache.overall_mshr_misses::cpu.data       902676                       # number of overall MSHR misses
system.cpu.dcache.overall_mshr_misses::total       902676                       # number of overall MSHR misses
system.cpu.dcache.ReadReq_mshr_miss_latency::cpu.data 111288885000                       # number of ReadReq MSHR miss cycles
system.cpu.dcache.ReadReq_mshr_miss_latency::total 111288885000                       # number of ReadReq MSHR miss cycles
system.cpu.dcache.WriteReq_mshr_miss_latency::cpu.data  23488831500                       # number of WriteReq MSHR miss cycles
system.cpu.dcache.WriteReq_mshr_miss_latency::total  23488831500                       # number of WriteReq MSHR miss cycles
system.cpu.dcache.demand_mshr_miss_latency::cpu.data 134777716500                       # number of demand (read+write) MSHR miss cycles
system.cpu.dcache.demand_mshr_miss_latency::total 134777716500                       # number of demand (read+write) MSHR miss cycles
system.cpu.dcache.overall_mshr_miss_latency::cpu.data 134777716500                       # number of overall MSHR miss cycles
system.cpu.dcache.overall_mshr_miss_latency::total 134777716500                       # number of overall MSHR miss cycles
system.cpu.dcache.ReadReq_mshr_miss_rate::cpu.data     0.002586                       # mshr miss rate for ReadReq accesses
system.cpu.dcache.ReadReq_mshr_miss_rate::total     0.002586                       # mshr miss rate for ReadReq accesses
system.cpu.dcache.WriteReq_mshr_miss_rate::cpu.data     0.004452                       # mshr miss rate for WriteReq accesses
system.cpu.dcache.WriteReq_mshr_miss_rate::total     0.004452                       # mshr miss rate for WriteReq accesses
system.cpu.dcache.demand_mshr_miss_rate::cpu.data     0.002983                       # mshr miss rate for demand accesses
system.cpu.dcache.demand_mshr_miss_rate::total     0.002983                       # mshr miss rate for demand accesses
system.cpu.dcache.overall_mshr_miss_rate::cpu.data     0.002983                       # mshr miss rate for overall accesses
system.cpu.dcache.overall_mshr_miss_rate::total     0.002983                       # mshr miss rate for overall accesses
system.cpu.dcache.ReadReq_avg_mshr_miss_latency::cpu.data 180634.743767                       # average ReadReq mshr miss latency
system.cpu.dcache.ReadReq_avg_mshr_miss_latency::total 180634.743767                       # average ReadReq mshr miss latency
system.cpu.dcache.WriteReq_avg_mshr_miss_latency::cpu.data 81963.421698                       # average WriteReq mshr miss latency
system.cpu.dcache.WriteReq_avg_mshr_miss_latency::total 81963.421698                       # average WriteReq mshr miss latency
system.cpu.dcache.demand_avg_mshr_miss_latency::cpu.data 149309.072691                       # average overall mshr miss latency
system.cpu.dcache.demand_avg_mshr_miss_latency::total 149309.072691                       # average overall mshr miss latency
system.cpu.dcache.overall_avg_mshr_miss_latency::cpu.data 149309.072691                       # average overall mshr miss latency
system.cpu.dcache.overall_avg_mshr_miss_latency::total 149309.072691                       # average overall mshr miss latency
system.cpu.dcache.replacements                 682098                       # number of replacements
system.cpu.dtb_walker_cache.tags.pwrStateResidencyTicks::UNDEFINED 1110798619500                       # Cumulative time (in ticks) in various power states
system.cpu.dtb_walker_cache.tags.tagsinuse            0                       # Cycle average of tags in use
system.cpu.dtb_walker_cache.tags.total_refs            0                       # Total number of references to valid blocks.
system.cpu.dtb_walker_cache.tags.sampled_refs            0                       # Sample count of references to valid blocks.
system.cpu.dtb_walker_cache.tags.avg_refs          nan                       # Average number of references to valid blocks.
system.cpu.dtb_walker_cache.tags.warmup_cycle            0                       # Cycle when the warmup percentage was hit.
system.cpu.dtb_walker_cache.tags.tag_accesses            0                       # Number of tag accesses
system.cpu.dtb_walker_cache.tags.data_accesses            0                       # Number of data accesses
system.cpu.dtb_walker_cache.pwrStateResidencyTicks::UNDEFINED 1110798619500                       # Cumulative time (in ticks) in various power states
system.cpu.dtb_walker_cache.blocked_cycles::no_mshrs            0                       # number of cycles access was blocked
system.cpu.dtb_walker_cache.blocked_cycles::no_targets            0                       # number of cycles access was blocked
system.cpu.dtb_walker_cache.blocked::no_mshrs            0                       # number of cycles access was blocked
system.cpu.dtb_walker_cache.blocked::no_targets            0                       # number of cycles access was blocked
system.cpu.dtb_walker_cache.avg_blocked_cycles::no_mshrs          nan                       # average number of cycles each access was blocked
system.cpu.dtb_walker_cache.avg_blocked_cycles::no_targets          nan                       # average number of cycles each access was blocked
system.cpu.dtb_walker_cache.replacements            0                       # number of replacements
system.cpu.icache.tags.pwrStateResidencyTicks::UNDEFINED 1110798619500                       # Cumulative time (in ticks) in various power states
system.cpu.icache.tags.tagsinuse           281.488566                       # Cycle average of tags in use
system.cpu.icache.tags.total_refs           673335193                       # Total number of references to valid blocks.
system.cpu.icache.tags.sampled_refs               355                       # Sample count of references to valid blocks.
system.cpu.icache.tags.avg_refs          1896718.853521                       # Average number of references to valid blocks.
system.cpu.icache.tags.warmup_cycle            448500                       # Cycle when the warmup percentage was hit.
system.cpu.icache.tags.occ_blocks::cpu.inst   281.488566                       # Average occupied blocks per requestor
system.cpu.icache.tags.occ_percent::cpu.inst     0.549782                       # Average percentage of cache occupancy
system.cpu.icache.tags.occ_percent::total     0.549782                       # Average percentage of cache occupancy
system.cpu.icache.tags.occ_task_id_blocks::1024          311                       # Occupied blocks per task id
system.cpu.icache.tags.age_task_id_blocks_1024::0           20                       # Occupied blocks per task id
system.cpu.icache.tags.age_task_id_blocks_1024::1           18                       # Occupied blocks per task id
system.cpu.icache.tags.age_task_id_blocks_1024::4          273                       # Occupied blocks per task id
system.cpu.icache.tags.occ_task_id_percent::1024     0.607422                       # Percentage of cache occupancy per task id
system.cpu.icache.tags.tag_accesses        1346670741                       # Number of tag accesses
system.cpu.icache.tags.data_accesses       1346670741                       # Number of data accesses
system.cpu.icache.pwrStateResidencyTicks::UNDEFINED 1110798619500                       # Cumulative time (in ticks) in various power states
system.cpu.icache.ReadReq_hits::cpu.inst    673334838                       # number of ReadReq hits
system.cpu.icache.ReadReq_hits::total       673334838                       # number of ReadReq hits
system.cpu.icache.demand_hits::cpu.inst     673334838                       # number of demand (read+write) hits
system.cpu.icache.demand_hits::total        673334838                       # number of demand (read+write) hits
system.cpu.icache.overall_hits::cpu.inst    673334838                       # number of overall hits
system.cpu.icache.overall_hits::total       673334838                       # number of overall hits
system.cpu.icache.ReadReq_misses::cpu.inst          355                       # number of ReadReq misses
system.cpu.icache.ReadReq_misses::total           355                       # number of ReadReq misses
system.cpu.icache.demand_misses::cpu.inst          355                       # number of demand (read+write) misses
system.cpu.icache.demand_misses::total            355                       # number of demand (read+write) misses
system.cpu.icache.overall_misses::cpu.inst          355                       # number of overall misses
system.cpu.icache.overall_misses::total           355                       # number of overall misses
system.cpu.icache.ReadReq_miss_latency::cpu.inst     65421000                       # number of ReadReq miss cycles
system.cpu.icache.ReadReq_miss_latency::total     65421000                       # number of ReadReq miss cycles
system.cpu.icache.demand_miss_latency::cpu.inst     65421000                       # number of demand (read+write) miss cycles
system.cpu.icache.demand_miss_latency::total     65421000                       # number of demand (read+write) miss cycles
system.cpu.icache.overall_miss_latency::cpu.inst     65421000                       # number of overall miss cycles
system.cpu.icache.overall_miss_latency::total     65421000                       # number of overall miss cycles
system.cpu.icache.ReadReq_accesses::cpu.inst    673335193                       # number of ReadReq accesses(hits+misses)
system.cpu.icache.ReadReq_accesses::total    673335193                       # number of ReadReq accesses(hits+misses)
system.cpu.icache.demand_accesses::cpu.inst    673335193                       # number of demand (read+write) accesses
system.cpu.icache.demand_accesses::total    673335193                       # number of demand (read+write) accesses
system.cpu.icache.overall_accesses::cpu.inst    673335193                       # number of overall (read+write) accesses
system.cpu.icache.overall_accesses::total    673335193                       # number of overall (read+write) accesses
system.cpu.icache.ReadReq_miss_rate::cpu.inst     0.000001                       # miss rate for ReadReq accesses
system.cpu.icache.ReadReq_miss_rate::total     0.000001                       # miss rate for ReadReq accesses
system.cpu.icache.demand_miss_rate::cpu.inst     0.000001                       # miss rate for demand accesses
system.cpu.icache.demand_miss_rate::total     0.000001                       # miss rate for demand accesses
system.cpu.icache.overall_miss_rate::cpu.inst     0.000001                       # miss rate for overall accesses
system.cpu.icache.overall_miss_rate::total     0.000001                       # miss rate for overall accesses
system.cpu.icache.ReadReq_avg_miss_latency::cpu.inst 184284.507042                       # average ReadReq miss latency
system.cpu.icache.ReadReq_avg_miss_latency::total 184284.507042                       # average ReadReq miss latency
system.cpu.icache.demand_avg_miss_latency::cpu.inst 184284.507042                       # average overall miss latency
system.cpu.icache.demand_avg_miss_latency::total 184284.507042                       # average overall miss latency
system.cpu.icache.overall_avg_miss_latency::cpu.inst 184284.507042                       # average overall miss latency
system.cpu.icache.overall_avg_miss_latency::total 184284.507042                       # average overall miss latency
system.cpu.icache.blocked_cycles::no_mshrs            0                       # number of cycles access was blocked
system.cpu.icache.blocked_cycles::no_targets            0                       # number of cycles access was blocked
system.cpu.icache.blocked::no_mshrs                 0                       # number of cycles access was blocked
system.cpu.icache.blocked::no_targets               0                       # number of cycles access was blocked
system.cpu.icache.avg_blocked_cycles::no_mshrs          nan                       # average number of cycles each access was blocked
system.cpu.icache.avg_blocked_cycles::no_targets          nan                       # average number of cycles each access was blocked
system.cpu.icache.writebacks::writebacks           44                       # number of writebacks
system.cpu.icache.writebacks::total                44                       # number of writebacks
system.cpu.icache.ReadReq_mshr_misses::cpu.inst          355                       # number of ReadReq MSHR misses
system.cpu.icache.ReadReq_mshr_misses::total          355                       # number of ReadReq MSHR misses
system.cpu.icache.demand_mshr_misses::cpu.inst          355                       # number of demand (read+write) MSHR misses
system.cpu.icache.demand_mshr_misses::total          355                       # number of demand (read+write) MSHR misses
system.cpu.icache.overall_mshr_misses::cpu.inst          355                       # number of overall MSHR misses
system.cpu.icache.overall_mshr_misses::total          355                       # number of overall MSHR misses
system.cpu.icache.ReadReq_mshr_miss_latency::cpu.inst     65066000                       # number of ReadReq MSHR miss cycles
system.cpu.icache.ReadReq_mshr_miss_latency::total     65066000                       # number of ReadReq MSHR miss cycles
system.cpu.icache.demand_mshr_miss_latency::cpu.inst     65066000                       # number of demand (read+write) MSHR miss cycles
system.cpu.icache.demand_mshr_miss_latency::total     65066000                       # number of demand (read+write) MSHR miss cycles
system.cpu.icache.overall_mshr_miss_latency::cpu.inst     65066000                       # number of overall MSHR miss cycles
system.cpu.icache.overall_mshr_miss_latency::total     65066000                       # number of overall MSHR miss cycles
system.cpu.icache.ReadReq_mshr_miss_rate::cpu.inst     0.000001                       # mshr miss rate for ReadReq accesses
system.cpu.icache.ReadReq_mshr_miss_rate::total     0.000001                       # mshr miss rate for ReadReq accesses
system.cpu.icache.demand_mshr_miss_rate::cpu.inst     0.000001                       # mshr miss rate for demand accesses
system.cpu.icache.demand_mshr_miss_rate::total     0.000001                       # mshr miss rate for demand accesses
system.cpu.icache.overall_mshr_miss_rate::cpu.inst     0.000001                       # mshr miss rate for overall accesses
system.cpu.icache.overall_mshr_miss_rate::total     0.000001                       # mshr miss rate for overall accesses
system.cpu.icache.ReadReq_avg_mshr_miss_latency::cpu.inst 183284.507042                       # average ReadReq mshr miss latency
system.cpu.icache.ReadReq_avg_mshr_miss_latency::total 183284.507042                       # average ReadReq mshr miss latency
system.cpu.icache.demand_avg_mshr_miss_latency::cpu.inst 183284.507042                       # average overall mshr miss latency
system.cpu.icache.demand_avg_mshr_miss_latency::total 183284.507042                       # average overall mshr miss latency
system.cpu.icache.overall_avg_mshr_miss_latency::cpu.inst 183284.507042                       # average overall mshr miss latency
system.cpu.icache.overall_avg_mshr_miss_latency::total 183284.507042                       # average overall mshr miss latency
system.cpu.icache.replacements                     44                       # number of replacements
system.cpu.itb_walker_cache.tags.pwrStateResidencyTicks::UNDEFINED 1110798619500                       # Cumulative time (in ticks) in various power states
system.cpu.itb_walker_cache.tags.tagsinuse            0                       # Cycle average of tags in use
system.cpu.itb_walker_cache.tags.total_refs            0                       # Total number of references to valid blocks.
system.cpu.itb_walker_cache.tags.sampled_refs            0                       # Sample count of references to valid blocks.
system.cpu.itb_walker_cache.tags.avg_refs          nan                       # Average number of references to valid blocks.
system.cpu.itb_walker_cache.tags.warmup_cycle            0                       # Cycle when the warmup percentage was hit.
system.cpu.itb_walker_cache.tags.tag_accesses            0                       # Number of tag accesses
system.cpu.itb_walker_cache.tags.data_accesses            0                       # Number of data accesses
system.cpu.itb_walker_cache.pwrStateResidencyTicks::UNDEFINED 1110798619500                       # Cumulative time (in ticks) in various power states
system.cpu.itb_walker_cache.blocked_cycles::no_mshrs            0                       # number of cycles access was blocked
system.cpu.itb_walker_cache.blocked_cycles::no_targets            0                       # number of cycles access was blocked
system.cpu.itb_walker_cache.blocked::no_mshrs            0                       # number of cycles access was blocked
system.cpu.itb_walker_cache.blocked::no_targets            0                       # number of cycles access was blocked
system.cpu.itb_walker_cache.avg_blocked_cycles::no_mshrs          nan                       # average number of cycles each access was blocked
system.cpu.itb_walker_cache.avg_blocked_cycles::no_targets          nan                       # average number of cycles each access was blocked
system.cpu.itb_walker_cache.replacements            0                       # number of replacements
system.l2.tags.pwrStateResidencyTicks::UNDEFINED 1110798619500                       # Cumulative time (in ticks) in various power states
system.l2.tags.tagsinuse                  2045.677896                       # Cycle average of tags in use
system.l2.tags.total_refs                     1585173                       # Total number of references to valid blocks.
system.l2.tags.sampled_refs                    518839                       # Sample count of references to valid blocks.
system.l2.tags.avg_refs                      3.055231                       # Average number of references to valid blocks.
system.l2.tags.warmup_cycle                    438000                       # Cycle when the warmup percentage was hit.
system.l2.tags.occ_blocks::writebacks        1.014825                       # Average occupied blocks per requestor
system.l2.tags.occ_blocks::cpu.inst          0.906168                       # Average occupied blocks per requestor
system.l2.tags.occ_blocks::cpu.data       2043.756903                       # Average occupied blocks per requestor
system.l2.tags.occ_percent::writebacks       0.000496                       # Average percentage of cache occupancy
system.l2.tags.occ_percent::cpu.inst         0.000442                       # Average percentage of cache occupancy
system.l2.tags.occ_percent::cpu.data         0.997928                       # Average percentage of cache occupancy
system.l2.tags.occ_percent::total            0.998866                       # Average percentage of cache occupancy
system.l2.tags.occ_task_id_blocks::1024          2048                       # Occupied blocks per task id
system.l2.tags.age_task_id_blocks_1024::0           37                       # Occupied blocks per task id
system.l2.tags.age_task_id_blocks_1024::1           38                       # Occupied blocks per task id
system.l2.tags.age_task_id_blocks_1024::3          450                       # Occupied blocks per task id
system.l2.tags.age_task_id_blocks_1024::4         1523                       # Occupied blocks per task id
system.l2.tags.occ_task_id_percent::1024            1                       # Percentage of cache occupancy per task id
system.l2.tags.tag_accesses                  13200223                       # Number of tag accesses
system.l2.tags.data_accesses                 13200223                       # Number of data accesses
system.l2.pwrStateResidencyTicks::UNDEFINED 1110798619500                       # Cumulative time (in ticks) in various power states
system.l2.WritebackDirty_hits::writebacks       657660                       # number of WritebackDirty hits
system.l2.WritebackDirty_hits::total           657660                       # number of WritebackDirty hits
system.l2.WritebackClean_hits::writebacks           44                       # number of WritebackClean hits
system.l2.WritebackClean_hits::total               44                       # number of WritebackClean hits
system.l2.UpgradeReq_hits::cpu.data            220066                       # number of UpgradeReq hits
system.l2.UpgradeReq_hits::total               220066                       # number of UpgradeReq hits
system.l2.ReadExReq_hits::cpu.data               3075                       # number of ReadExReq hits
system.l2.ReadExReq_hits::total                  3075                       # number of ReadExReq hits
system.l2.ReadSharedReq_hits::cpu.data         161154                       # number of ReadSharedReq hits
system.l2.ReadSharedReq_hits::total            161154                       # number of ReadSharedReq hits
system.l2.demand_hits::cpu.data                164229                       # number of demand (read+write) hits
system.l2.demand_hits::total                   164229                       # number of demand (read+write) hits
system.l2.overall_hits::cpu.data               164229                       # number of overall hits
system.l2.overall_hits::total                  164229                       # number of overall hits
system.l2.ReadExReq_misses::cpu.data            63436                       # number of ReadExReq misses
system.l2.ReadExReq_misses::total               63436                       # number of ReadExReq misses
system.l2.ReadCleanReq_misses::cpu.inst           355                       # number of ReadCleanReq misses
system.l2.ReadCleanReq_misses::total              355                       # number of ReadCleanReq misses
system.l2.ReadSharedReq_misses::cpu.data       454945                       # number of ReadSharedReq misses
system.l2.ReadSharedReq_misses::total          454945                       # number of ReadSharedReq misses
system.l2.demand_misses::cpu.inst                 355                       # number of demand (read+write) misses
system.l2.demand_misses::cpu.data              518381                       # number of demand (read+write) misses
system.l2.demand_misses::total                 518736                       # number of demand (read+write) misses
system.l2.overall_misses::cpu.inst                355                       # number of overall misses
system.l2.overall_misses::cpu.data             518381                       # number of overall misses
system.l2.overall_misses::total                518736                       # number of overall misses
system.l2.ReadExReq_miss_latency::cpu.data  20715985500                       # number of ReadExReq miss cycles
system.l2.ReadExReq_miss_latency::total   20715985500                       # number of ReadExReq miss cycles
system.l2.ReadCleanReq_miss_latency::cpu.inst     64530500                       # number of ReadCleanReq miss cycles
system.l2.ReadCleanReq_miss_latency::total     64530500                       # number of ReadCleanReq miss cycles
system.l2.ReadSharedReq_miss_latency::cpu.data 108672619500                       # number of ReadSharedReq miss cycles
system.l2.ReadSharedReq_miss_latency::total 108672619500                       # number of ReadSharedReq miss cycles
system.l2.demand_miss_latency::cpu.inst      64530500                       # number of demand (read+write) miss cycles
system.l2.demand_miss_latency::cpu.data  129388605000                       # number of demand (read+write) miss cycles
system.l2.demand_miss_latency::total     129453135500                       # number of demand (read+write) miss cycles
system.l2.overall_miss_latency::cpu.inst     64530500                       # number of overall miss cycles
system.l2.overall_miss_latency::cpu.data 129388605000                       # number of overall miss cycles
system.l2.overall_miss_latency::total    129453135500                       # number of overall miss cycles
system.l2.WritebackDirty_accesses::writebacks       657660                       # number of WritebackDirty accesses(hits+misses)
system.l2.WritebackDirty_accesses::total       657660                       # number of WritebackDirty accesses(hits+misses)
system.l2.WritebackClean_accesses::writebacks           44                       # number of WritebackClean accesses(hits+misses)
system.l2.WritebackClean_accesses::total           44                       # number of WritebackClean accesses(hits+misses)
system.l2.UpgradeReq_accesses::cpu.data        220066                       # number of UpgradeReq accesses(hits+misses)
system.l2.UpgradeReq_accesses::total           220066                       # number of UpgradeReq accesses(hits+misses)
system.l2.ReadExReq_accesses::cpu.data          66511                       # number of ReadExReq accesses(hits+misses)
system.l2.ReadExReq_accesses::total             66511                       # number of ReadExReq accesses(hits+misses)
system.l2.ReadCleanReq_accesses::cpu.inst          355                       # number of ReadCleanReq accesses(hits+misses)
system.l2.ReadCleanReq_accesses::total            355                       # number of ReadCleanReq accesses(hits+misses)
system.l2.ReadSharedReq_accesses::cpu.data       616099                       # number of ReadSharedReq accesses(hits+misses)
system.l2.ReadSharedReq_accesses::total        616099                       # number of ReadSharedReq accesses(hits+misses)
system.l2.demand_accesses::cpu.inst               355                       # number of demand (read+write) accesses
system.l2.demand_accesses::cpu.data            682610                       # number of demand (read+write) accesses
system.l2.demand_accesses::total               682965                       # number of demand (read+write) accesses
system.l2.overall_accesses::cpu.inst              355                       # number of overall (read+write) accesses
system.l2.overall_accesses::cpu.data           682610                       # number of overall (read+write) accesses
system.l2.overall_accesses::total              682965                       # number of overall (read+write) accesses
system.l2.ReadExReq_miss_rate::cpu.data      0.953767                       # miss rate for ReadExReq accesses
system.l2.ReadExReq_miss_rate::total         0.953767                       # miss rate for ReadExReq accesses
system.l2.ReadCleanReq_miss_rate::cpu.inst            1                       # miss rate for ReadCleanReq accesses
system.l2.ReadCleanReq_miss_rate::total             1                       # miss rate for ReadCleanReq accesses
system.l2.ReadSharedReq_miss_rate::cpu.data     0.738428                       # miss rate for ReadSharedReq accesses
system.l2.ReadSharedReq_miss_rate::total     0.738428                       # miss rate for ReadSharedReq accesses
system.l2.demand_miss_rate::cpu.inst                1                       # miss rate for demand accesses
system.l2.demand_miss_rate::cpu.data         0.759410                       # miss rate for demand accesses
system.l2.demand_miss_rate::total            0.759535                       # miss rate for demand accesses
system.l2.overall_miss_rate::cpu.inst               1                       # miss rate for overall accesses
system.l2.overall_miss_rate::cpu.data        0.759410                       # miss rate for overall accesses
system.l2.overall_miss_rate::total           0.759535                       # miss rate for overall accesses
system.l2.ReadExReq_avg_miss_latency::cpu.data 326565.128634                       # average ReadExReq miss latency
system.l2.ReadExReq_avg_miss_latency::total 326565.128634                       # average ReadExReq miss latency
system.l2.ReadCleanReq_avg_miss_latency::cpu.inst 181776.056338                       # average ReadCleanReq miss latency
system.l2.ReadCleanReq_avg_miss_latency::total 181776.056338                       # average ReadCleanReq miss latency
system.l2.ReadSharedReq_avg_miss_latency::cpu.data 238869.796349                       # average ReadSharedReq miss latency
system.l2.ReadSharedReq_avg_miss_latency::total 238869.796349                       # average ReadSharedReq miss latency
system.l2.demand_avg_miss_latency::cpu.inst 181776.056338                       # average overall miss latency
system.l2.demand_avg_miss_latency::cpu.data 249601.364633                       # average overall miss latency
system.l2.demand_avg_miss_latency::total 249554.947989                       # average overall miss latency
system.l2.overall_avg_miss_latency::cpu.inst 181776.056338                       # average overall miss latency
system.l2.overall_avg_miss_latency::cpu.data 249601.364633                       # average overall miss latency
system.l2.overall_avg_miss_latency::total 249554.947989                       # average overall miss latency
system.l2.blocked_cycles::no_mshrs                  0                       # number of cycles access was blocked
system.l2.blocked_cycles::no_targets                0                       # number of cycles access was blocked
system.l2.blocked::no_mshrs                         0                       # number of cycles access was blocked
system.l2.blocked::no_targets                       0                       # number of cycles access was blocked
system.l2.avg_blocked_cycles::no_mshrs            nan                       # average number of cycles each access was blocked
system.l2.avg_blocked_cycles::no_targets          nan                       # average number of cycles each access was blocked
system.l2.writebacks::writebacks               508364                       # number of writebacks
system.l2.writebacks::total                    508364                       # number of writebacks
system.l2.ReadExReq_mshr_misses::cpu.data        63436                       # number of ReadExReq MSHR misses
system.l2.ReadExReq_mshr_misses::total          63436                       # number of ReadExReq MSHR misses
system.l2.ReadCleanReq_mshr_misses::cpu.inst          355                       # number of ReadCleanReq MSHR misses
system.l2.ReadCleanReq_mshr_misses::total          355                       # number of ReadCleanReq MSHR misses
system.l2.ReadSharedReq_mshr_misses::cpu.data       454945                       # number of ReadSharedReq MSHR misses
system.l2.ReadSharedReq_mshr_misses::total       454945                       # number of ReadSharedReq MSHR misses
system.l2.demand_mshr_misses::cpu.inst            355                       # number of demand (read+write) MSHR misses
system.l2.demand_mshr_misses::cpu.data         518381                       # number of demand (read+write) MSHR misses
system.l2.demand_mshr_misses::total            518736                       # number of demand (read+write) MSHR misses
system.l2.overall_mshr_misses::cpu.inst           355                       # number of overall MSHR misses
system.l2.overall_mshr_misses::cpu.data        518381                       # number of overall MSHR misses
system.l2.overall_mshr_misses::total           518736                       # number of overall MSHR misses
system.l2.ReadExReq_mshr_miss_latency::cpu.data  20081625500                       # number of ReadExReq MSHR miss cycles
system.l2.ReadExReq_mshr_miss_latency::total  20081625500                       # number of ReadExReq MSHR miss cycles
system.l2.ReadCleanReq_mshr_miss_latency::cpu.inst     60980500                       # number of ReadCleanReq MSHR miss cycles
system.l2.ReadCleanReq_mshr_miss_latency::total     60980500                       # number of ReadCleanReq MSHR miss cycles
system.l2.ReadSharedReq_mshr_miss_latency::cpu.data 104123169500                       # number of ReadSharedReq MSHR miss cycles
system.l2.ReadSharedReq_mshr_miss_latency::total 104123169500                       # number of ReadSharedReq MSHR miss cycles
system.l2.demand_mshr_miss_latency::cpu.inst     60980500                       # number of demand (read+write) MSHR miss cycles
system.l2.demand_mshr_miss_latency::cpu.data 124204795000                       # number of demand (read+write) MSHR miss cycles
system.l2.demand_mshr_miss_latency::total 124265775500                       # number of demand (read+write) MSHR miss cycles
system.l2.overall_mshr_miss_latency::cpu.inst     60980500                       # number of overall MSHR miss cycles
system.l2.overall_mshr_miss_latency::cpu.data 124204795000                       # number of overall MSHR miss cycles
system.l2.overall_mshr_miss_latency::total 124265775500                       # number of overall MSHR miss cycles
system.l2.ReadExReq_mshr_miss_rate::cpu.data     0.953767                       # mshr miss rate for ReadExReq accesses
system.l2.ReadExReq_mshr_miss_rate::total     0.953767                       # mshr miss rate for ReadExReq accesses
system.l2.ReadCleanReq_mshr_miss_rate::cpu.inst            1                       # mshr miss rate for ReadCleanReq accesses
system.l2.ReadCleanReq_mshr_miss_rate::total            1                       # mshr miss rate for ReadCleanReq accesses
system.l2.ReadSharedReq_mshr_miss_rate::cpu.data     0.738428                       # mshr miss rate for ReadSharedReq accesses
system.l2.ReadSharedReq_mshr_miss_rate::total     0.738428                       # mshr miss rate for ReadSharedReq accesses
system.l2.demand_mshr_miss_rate::cpu.inst            1                       # mshr miss rate for demand accesses
system.l2.demand_mshr_miss_rate::cpu.data     0.759410                       # mshr miss rate for demand accesses
system.l2.demand_mshr_miss_rate::total       0.759535                       # mshr miss rate for demand accesses
system.l2.overall_mshr_miss_rate::cpu.inst            1                       # mshr miss rate for overall accesses
system.l2.overall_mshr_miss_rate::cpu.data     0.759410                       # mshr miss rate for overall accesses
system.l2.overall_mshr_miss_rate::total      0.759535                       # mshr miss rate for overall accesses
system.l2.ReadExReq_avg_mshr_miss_latency::cpu.data 316565.128634                       # average ReadExReq mshr miss latency
system.l2.ReadExReq_avg_mshr_miss_latency::total 316565.128634                       # average ReadExReq mshr miss latency
system.l2.ReadCleanReq_avg_mshr_miss_latency::cpu.inst 171776.056338                       # average ReadCleanReq mshr miss latency
system.l2.ReadCleanReq_avg_mshr_miss_latency::total 171776.056338                       # average ReadCleanReq mshr miss latency
system.l2.ReadSharedReq_avg_mshr_miss_latency::cpu.data 228869.796349                       # average ReadSharedReq mshr miss latency
system.l2.ReadSharedReq_avg_mshr_miss_latency::total 228869.796349                       # average ReadSharedReq mshr miss latency
system.l2.demand_avg_mshr_miss_latency::cpu.inst 171776.056338                       # average overall mshr miss latency
system.l2.demand_avg_mshr_miss_latency::cpu.data 239601.364633                       # average overall mshr miss latency
system.l2.demand_avg_mshr_miss_latency::total 239554.947989                       # average overall mshr miss latency
system.l2.overall_avg_mshr_miss_latency::cpu.inst 171776.056338                       # average overall mshr miss latency
system.l2.overall_avg_mshr_miss_latency::cpu.data 239601.364633                       # average overall mshr miss latency
system.l2.overall_avg_mshr_miss_latency::total 239554.947989                       # average overall mshr miss latency
system.l2.replacements                         516791                       # number of replacements
system.l3.tags.pwrStateResidencyTicks::UNDEFINED 1110798619500                       # Cumulative time (in ticks) in various power states
system.l3.tags.tagsinuse                 16158.391324                       # Cycle average of tags in use
system.l3.tags.total_refs                     1035151                       # Total number of references to valid blocks.
system.l3.tags.sampled_refs                    280123                       # Sample count of references to valid blocks.
system.l3.tags.avg_refs                      3.695345                       # Average number of references to valid blocks.
system.l3.tags.warmup_cycle                    418000                       # Cycle when the warmup percentage was hit.
system.l3.tags.occ_blocks::writebacks        1.008188                       # Average occupied blocks per requestor
system.l3.tags.occ_blocks::cpu.inst          6.464343                       # Average occupied blocks per requestor
system.l3.tags.occ_blocks::cpu.data      16150.918792                       # Average occupied blocks per requestor
system.l3.tags.occ_percent::writebacks       0.000062                       # Average percentage of cache occupancy
system.l3.tags.occ_percent::cpu.inst         0.000395                       # Average percentage of cache occupancy
system.l3.tags.occ_percent::cpu.data         0.985774                       # Average percentage of cache occupancy
system.l3.tags.occ_percent::total            0.986230                       # Average percentage of cache occupancy
system.l3.tags.occ_task_id_blocks::1024         16384                       # Occupied blocks per task id
system.l3.tags.age_task_id_blocks_1024::0           31                       # Occupied blocks per task id
system.l3.tags.age_task_id_blocks_1024::1           33                       # Occupied blocks per task id
system.l3.tags.age_task_id_blocks_1024::4        16320                       # Occupied blocks per task id
system.l3.tags.occ_task_id_percent::1024            1                       # Percentage of cache occupancy per task id
system.l3.tags.tag_accesses                   2350425                       # Number of tag accesses
system.l3.tags.data_accesses                  2350425                       # Number of data accesses
system.l3.pwrStateResidencyTicks::UNDEFINED 1110798619500                       # Cumulative time (in ticks) in various power states
system.l3.WritebackDirty_hits::writebacks       508364                       # number of WritebackDirty hits
system.l3.WritebackDirty_hits::total           508364                       # number of WritebackDirty hits
system.l3.ReadExReq_hits::cpu.data                665                       # number of ReadExReq hits
system.l3.ReadExReq_hits::total                   665                       # number of ReadExReq hits
system.l3.ReadSharedReq_hits::cpu.data         237965                       # number of ReadSharedReq hits
system.l3.ReadSharedReq_hits::total            237965                       # number of ReadSharedReq hits
system.l3.demand_hits::cpu.data                238630                       # number of demand (read+write) hits
system.l3.demand_hits::total                   238630                       # number of demand (read+write) hits
system.l3.overall_hits::cpu.data               238630                       # number of overall hits
system.l3.overall_hits::total                  238630                       # number of overall hits
system.l3.ReadExReq_misses::cpu.data            62771                       # number of ReadExReq misses
system.l3.ReadExReq_misses::total               62771                       # number of ReadExReq misses
system.l3.ReadSharedReq_misses::cpu.inst          355                       # number of ReadSharedReq misses
system.l3.ReadSharedReq_misses::cpu.data       216980                       # number of ReadSharedReq misses
system.l3.ReadSharedReq_misses::total          217335                       # number of ReadSharedReq misses
system.l3.demand_misses::cpu.inst                 355                       # number of demand (read+write) misses
system.l3.demand_misses::cpu.data              279751                       # number of demand (read+write) misses
system.l3.demand_misses::total                 280106                       # number of demand (read+write) misses
system.l3.overall_misses::cpu.inst                355                       # number of overall misses
system.l3.overall_misses::cpu.data             279751                       # number of overall misses
system.l3.overall_misses::total                280106                       # number of overall misses
system.l3.ReadExReq_miss_latency::cpu.data  19402247500                       # number of ReadExReq miss cycles
system.l3.ReadExReq_miss_latency::total   19402247500                       # number of ReadExReq miss cycles
system.l3.ReadSharedReq_miss_latency::cpu.inst     57253000                       # number of ReadSharedReq miss cycles
system.l3.ReadSharedReq_miss_latency::cpu.data  94586947000                       # number of ReadSharedReq miss cycles
system.l3.ReadSharedReq_miss_latency::total  94644200000                       # number of ReadSharedReq miss cycles
system.l3.demand_miss_latency::cpu.inst      57253000                       # number of demand (read+write) miss cycles
system.l3.demand_miss_latency::cpu.data  113989194500                       # number of demand (read+write) miss cycles
system.l3.demand_miss_latency::total     114046447500                       # number of demand (read+write) miss cycles
system.l3.overall_miss_latency::cpu.inst     57253000                       # number of overall miss cycles
system.l3.overall_miss_latency::cpu.data 113989194500                       # number of overall miss cycles
system.l3.overall_miss_latency::total    114046447500                       # number of overall miss cycles
system.l3.WritebackDirty_accesses::writebacks       508364                       # number of WritebackDirty accesses(hits+misses)
system.l3.WritebackDirty_accesses::total       508364                       # number of WritebackDirty accesses(hits+misses)
system.l3.ReadExReq_accesses::cpu.data          63436                       # number of ReadExReq accesses(hits+misses)
system.l3.ReadExReq_accesses::total             63436                       # number of ReadExReq accesses(hits+misses)
system.l3.ReadSharedReq_accesses::cpu.inst          355                       # number of ReadSharedReq accesses(hits+misses)
system.l3.ReadSharedReq_accesses::cpu.data       454945                       # number of ReadSharedReq accesses(hits+misses)
system.l3.ReadSharedReq_accesses::total        455300                       # number of ReadSharedReq accesses(hits+misses)
system.l3.demand_accesses::cpu.inst               355                       # number of demand (read+write) accesses
system.l3.demand_accesses::cpu.data            518381                       # number of demand (read+write) accesses
system.l3.demand_accesses::total               518736                       # number of demand (read+write) accesses
system.l3.overall_accesses::cpu.inst              355                       # number of overall (read+write) accesses
system.l3.overall_accesses::cpu.data           518381                       # number of overall (read+write) accesses
system.l3.overall_accesses::total              518736                       # number of overall (read+write) accesses
system.l3.ReadExReq_miss_rate::cpu.data      0.989517                       # miss rate for ReadExReq accesses
system.l3.ReadExReq_miss_rate::total         0.989517                       # miss rate for ReadExReq accesses
system.l3.ReadSharedReq_miss_rate::cpu.inst            1                       # miss rate for ReadSharedReq accesses
system.l3.ReadSharedReq_miss_rate::cpu.data     0.476937                       # miss rate for ReadSharedReq accesses
system.l3.ReadSharedReq_miss_rate::total     0.477345                       # miss rate for ReadSharedReq accesses
system.l3.demand_miss_rate::cpu.inst                1                       # miss rate for demand accesses
system.l3.demand_miss_rate::cpu.data         0.539663                       # miss rate for demand accesses
system.l3.demand_miss_rate::total            0.539978                       # miss rate for demand accesses
system.l3.overall_miss_rate::cpu.inst               1                       # miss rate for overall accesses
system.l3.overall_miss_rate::cpu.data        0.539663                       # miss rate for overall accesses
system.l3.overall_miss_rate::total           0.539978                       # miss rate for overall accesses
system.l3.ReadExReq_avg_miss_latency::cpu.data 309095.720954                       # average ReadExReq miss latency
system.l3.ReadExReq_avg_miss_latency::total 309095.720954                       # average ReadExReq miss latency
system.l3.ReadSharedReq_avg_miss_latency::cpu.inst 161276.056338                       # average ReadSharedReq miss latency
system.l3.ReadSharedReq_avg_miss_latency::cpu.data 435924.725781                       # average ReadSharedReq miss latency
system.l3.ReadSharedReq_avg_miss_latency::total 435476.108312                       # average ReadSharedReq miss latency
system.l3.demand_avg_miss_latency::cpu.inst 161276.056338                       # average overall miss latency
system.l3.demand_avg_miss_latency::cpu.data 407466.620316                       # average overall miss latency
system.l3.demand_avg_miss_latency::total 407154.603971                       # average overall miss latency
system.l3.overall_avg_miss_latency::cpu.inst 161276.056338                       # average overall miss latency
system.l3.overall_avg_miss_latency::cpu.data 407466.620316                       # average overall miss latency
system.l3.overall_avg_miss_latency::total 407154.603971                       # average overall miss latency
system.l3.blocked_cycles::no_mshrs                  0                       # number of cycles access was blocked
system.l3.blocked_cycles::no_targets                0                       # number of cycles access was blocked
system.l3.blocked::no_mshrs                         0                       # number of cycles access was blocked
system.l3.blocked::no_targets                       0                       # number of cycles access was blocked
system.l3.avg_blocked_cycles::no_mshrs            nan                       # average number of cycles each access was blocked
system.l3.avg_blocked_cycles::no_targets          nan                       # average number of cycles each access was blocked
system.l3.writebacks::writebacks               256975                       # number of writebacks
system.l3.writebacks::total                    256975                       # number of writebacks
system.l3.ReadExReq_mshr_misses::cpu.data        62771                       # number of ReadExReq MSHR misses
system.l3.ReadExReq_mshr_misses::total          62771                       # number of ReadExReq MSHR misses
system.l3.ReadSharedReq_mshr_misses::cpu.inst          355                       # number of ReadSharedReq MSHR misses
system.l3.ReadSharedReq_mshr_misses::cpu.data       216980                       # number of ReadSharedReq MSHR misses
system.l3.ReadSharedReq_mshr_misses::total       217335                       # number of ReadSharedReq MSHR misses
system.l3.demand_mshr_misses::cpu.inst            355                       # number of demand (read+write) MSHR misses
system.l3.demand_mshr_misses::cpu.data         279751                       # number of demand (read+write) MSHR misses
system.l3.demand_mshr_misses::total            280106                       # number of demand (read+write) MSHR misses
system.l3.overall_mshr_misses::cpu.inst           355                       # number of overall MSHR misses
system.l3.overall_mshr_misses::cpu.data        279751                       # number of overall MSHR misses
system.l3.overall_mshr_misses::total           280106                       # number of overall MSHR misses
system.l3.ReadExReq_mshr_miss_latency::cpu.data  18146827500                       # number of ReadExReq MSHR miss cycles
system.l3.ReadExReq_mshr_miss_latency::total  18146827500                       # number of ReadExReq MSHR miss cycles
system.l3.ReadSharedReq_mshr_miss_latency::cpu.inst     50153000                       # number of ReadSharedReq MSHR miss cycles
system.l3.ReadSharedReq_mshr_miss_latency::cpu.data  90247347000                       # number of ReadSharedReq MSHR miss cycles
system.l3.ReadSharedReq_mshr_miss_latency::total  90297500000                       # number of ReadSharedReq MSHR miss cycles
system.l3.demand_mshr_miss_latency::cpu.inst     50153000                       # number of demand (read+write) MSHR miss cycles
system.l3.demand_mshr_miss_latency::cpu.data 108394174500                       # number of demand (read+write) MSHR miss cycles
system.l3.demand_mshr_miss_latency::total 108444327500                       # number of demand (read+write) MSHR miss cycles
system.l3.overall_mshr_miss_latency::cpu.inst     50153000                       # number of overall MSHR miss cycles
system.l3.overall_mshr_miss_latency::cpu.data 108394174500                       # number of overall MSHR miss cycles
system.l3.overall_mshr_miss_latency::total 108444327500                       # number of overall MSHR miss cycles
system.l3.ReadExReq_mshr_miss_rate::cpu.data     0.989517                       # mshr miss rate for ReadExReq accesses
system.l3.ReadExReq_mshr_miss_rate::total     0.989517                       # mshr miss rate for ReadExReq accesses
system.l3.ReadSharedReq_mshr_miss_rate::cpu.inst            1                       # mshr miss rate for ReadSharedReq accesses
system.l3.ReadSharedReq_mshr_miss_rate::cpu.data     0.476937                       # mshr miss rate for ReadSharedReq accesses
system.l3.ReadSharedReq_mshr_miss_rate::total     0.477345                       # mshr miss rate for ReadSharedReq accesses
system.l3.demand_mshr_miss_rate::cpu.inst            1                       # mshr miss rate for demand accesses
system.l3.demand_mshr_miss_rate::cpu.data     0.539663                       # mshr miss rate for demand accesses
system.l3.demand_mshr_miss_rate::total       0.539978                       # mshr miss rate for demand accesses
system.l3.overall_mshr_miss_rate::cpu.inst            1                       # mshr miss rate for overall accesses
system.l3.overall_mshr_miss_rate::cpu.data     0.539663                       # mshr miss rate for overall accesses
system.l3.overall_mshr_miss_rate::total      0.539978                       # mshr miss rate for overall accesses
system.l3.ReadExReq_avg_mshr_miss_latency::cpu.data 289095.720954                       # average ReadExReq mshr miss latency
system.l3.ReadExReq_avg_mshr_miss_latency::total 289095.720954                       # average ReadExReq mshr miss latency
system.l3.ReadSharedReq_avg_mshr_miss_latency::cpu.inst 141276.056338                       # average ReadSharedReq mshr miss latency
system.l3.ReadSharedReq_avg_mshr_miss_latency::cpu.data 415924.725781                       # average ReadSharedReq mshr miss latency
system.l3.ReadSharedReq_avg_mshr_miss_latency::total 415476.108312                       # average ReadSharedReq mshr miss latency
system.l3.demand_avg_mshr_miss_latency::cpu.inst 141276.056338                       # average overall mshr miss latency
system.l3.demand_avg_mshr_miss_latency::cpu.data 387466.620316                       # average overall mshr miss latency
system.l3.demand_avg_mshr_miss_latency::total 387154.603971                       # average overall mshr miss latency
system.l3.overall_avg_mshr_miss_latency::cpu.inst 141276.056338                       # average overall mshr miss latency
system.l3.overall_avg_mshr_miss_latency::cpu.data 387466.620316                       # average overall mshr miss latency
system.l3.overall_avg_mshr_miss_latency::total 387154.603971                       # average overall mshr miss latency
system.l3.replacements                         263739                       # number of replacements
system.membus.snoop_filter.tot_requests        543546                       # Total number of requests made to the snoop filter.
system.membus.snoop_filter.hit_single_requests       263440                       # Number of requests hitting in the snoop filter with a single holder of the requested data.
system.membus.snoop_filter.hit_multi_requests            0                       # Number of requests hitting in the snoop filter with multiple (>1) holders of the requested data.
system.membus.snoop_filter.tot_snoops               0                       # Total number of snoops made to the snoop filter.
system.membus.snoop_filter.hit_single_snoops            0                       # Number of snoops hitting in the snoop filter with a single holder of the requested data.
system.membus.snoop_filter.hit_multi_snoops            0                       # Number of snoops hitting in the snoop filter with multiple (>1) holders of the requested data.
system.membus.pwrStateResidencyTicks::UNDEFINED 1110798619500                       # Cumulative time (in ticks) in various power states
system.membus.trans_dist::ReadResp             217335                       # Transaction distribution
system.membus.trans_dist::WritebackDirty       256975                       # Transaction distribution
system.membus.trans_dist::CleanEvict             6465                       # Transaction distribution
system.membus.trans_dist::ReadExReq             62771                       # Transaction distribution
system.membus.trans_dist::ReadExResp            62771                       # Transaction distribution
system.membus.trans_dist::ReadSharedReq        217335                       # Transaction distribution
system.membus.pkt_count_system.l3.mem_side::system.mem_ctrls.port       823652                       # Packet count per connected master and slave (bytes)
system.membus.pkt_count_system.l3.mem_side::total       823652                       # Packet count per connected master and slave (bytes)
system.membus.pkt_count::total                 823652                       # Packet count per connected master and slave (bytes)
system.membus.pkt_size_system.l3.mem_side::system.mem_ctrls.port     34373184                       # Cumulative packet size per connected master and slave (bytes)
system.membus.pkt_size_system.l3.mem_side::total     34373184                       # Cumulative packet size per connected master and slave (bytes)
system.membus.pkt_size::total                34373184                       # Cumulative packet size per connected master and slave (bytes)
system.membus.snoops                                0                       # Total snoops (count)
system.membus.snoopTraffic                          0                       # Total snoop traffic (bytes)
system.membus.snoop_fanout::samples            280106                       # Request fanout histogram
system.membus.snoop_fanout::mean                    0                       # Request fanout histogram
system.membus.snoop_fanout::stdev                   0                       # Request fanout histogram
system.membus.snoop_fanout::underflows              0      0.00%      0.00% # Request fanout histogram
system.membus.snoop_fanout::0                  280106    100.00%    100.00% # Request fanout histogram
system.membus.snoop_fanout::1                       0      0.00%    100.00% # Request fanout histogram
system.membus.snoop_fanout::overflows               0      0.00%    100.00% # Request fanout histogram
system.membus.snoop_fanout::min_value               0                       # Request fanout histogram
system.membus.snoop_fanout::max_value               0                       # Request fanout histogram
system.membus.snoop_fanout::total              280106                       # Request fanout histogram
system.membus.reqLayer2.occupancy          1571446000                       # Layer occupancy (ticks)
system.membus.reqLayer2.utilization               0.1                       # Layer utilization (%)
system.membus.respLayer1.occupancy         1400530000                       # Layer occupancy (ticks)
system.membus.respLayer1.utilization              0.1                       # Layer utilization (%)
system.tol2bus.snoop_filter.tot_requests      1585173                       # Total number of requests made to the snoop filter.
system.tol2bus.snoop_filter.hit_single_requests       902208                       # Number of requests hitting in the snoop filter with a single holder of the requested data.
system.tol2bus.snoop_filter.hit_multi_requests            0                       # Number of requests hitting in the snoop filter with multiple (>1) holders of the requested data.
system.tol2bus.snoop_filter.tot_snoops            675                       # Total number of snoops made to the snoop filter.
system.tol2bus.snoop_filter.hit_single_snoops          675                       # Number of snoops hitting in the snoop filter with a single holder of the requested data.
system.tol2bus.snoop_filter.hit_multi_snoops            0                       # Number of snoops hitting in the snoop filter with multiple (>1) holders of the requested data.
system.tol2bus.pwrStateResidencyTicks::UNDEFINED 1110798619500                       # Cumulative time (in ticks) in various power states
system.tol2bus.trans_dist::ReadResp            616454                       # Transaction distribution
system.tol2bus.trans_dist::WritebackDirty      1422999                       # Transaction distribution
system.tol2bus.trans_dist::WritebackClean           44                       # Transaction distribution
system.tol2bus.trans_dist::CleanEvict           39629                       # Transaction distribution
system.tol2bus.trans_dist::UpgradeReq          220066                       # Transaction distribution
system.tol2bus.trans_dist::UpgradeResp         220066                       # Transaction distribution
system.tol2bus.trans_dist::ReadExReq            66511                       # Transaction distribution
system.tol2bus.trans_dist::ReadExResp           66511                       # Transaction distribution
system.tol2bus.trans_dist::ReadCleanReq           355                       # Transaction distribution
system.tol2bus.trans_dist::ReadSharedReq       616099                       # Transaction distribution
system.tol2bus.pkt_count_system.cpu.icache.mem_side::system.l2.cpu_side          754                       # Packet count per connected master and slave (bytes)
system.tol2bus.pkt_count_system.cpu.dcache.mem_side::system.l2.cpu_side      2487450                       # Packet count per connected master and slave (bytes)
system.tol2bus.pkt_count::total               2488204                       # Packet count per connected master and slave (bytes)
system.tol2bus.pkt_size_system.cpu.icache.mem_side::system.l2.cpu_side        25536                       # Cumulative packet size per connected master and slave (bytes)
system.tol2bus.pkt_size_system.cpu.dcache.mem_side::system.l2.cpu_side     85777280                       # Cumulative packet size per connected master and slave (bytes)
system.tol2bus.pkt_size::total               85802816                       # Cumulative packet size per connected master and slave (bytes)
system.tol2bus.snoops                          780530                       # Total snoops (count)
system.tol2bus.snoopTraffic                  48981696                       # Total snoop traffic (bytes)
system.tol2bus.snoop_fanout::samples          1683561                       # Request fanout histogram
system.tol2bus.snoop_fanout::mean            0.000401                       # Request fanout histogram
system.tol2bus.snoop_fanout::stdev           0.020019                       # Request fanout histogram
system.tol2bus.snoop_fanout::underflows             0      0.00%      0.00% # Request fanout histogram
system.tol2bus.snoop_fanout::0                1682886     99.96%     99.96% # Request fanout histogram
system.tol2bus.snoop_fanout::1                    675      0.04%    100.00% # Request fanout histogram
system.tol2bus.snoop_fanout::2                      0      0.00%    100.00% # Request fanout histogram
system.tol2bus.snoop_fanout::3                      0      0.00%    100.00% # Request fanout histogram
system.tol2bus.snoop_fanout::4                      0      0.00%    100.00% # Request fanout histogram
system.tol2bus.snoop_fanout::overflows              0      0.00%    100.00% # Request fanout histogram
system.tol2bus.snoop_fanout::min_value              0                       # Request fanout histogram
system.tol2bus.snoop_fanout::max_value              1                       # Request fanout histogram
system.tol2bus.snoop_fanout::total            1683561                       # Request fanout histogram
system.tol2bus.reqLayer0.occupancy         1450290500                       # Layer occupancy (ticks)
system.tol2bus.reqLayer0.utilization              0.1                       # Layer utilization (%)
system.tol2bus.respLayer0.occupancy            532500                       # Layer occupancy (ticks)
system.tol2bus.respLayer0.utilization             0.0                       # Layer utilization (%)
system.tol2bus.respLayer1.occupancy        1133948000                       # Layer occupancy (ticks)
system.tol2bus.respLayer1.utilization             0.1                       # Layer utilization (%)

---------- End Simulation Statistics   ----------
